
**** 07/05/22 21:54:04 ******* PSpice Lite (March 2016) ******* ID# 10813 ****

 ** Profile: "SCHEMATIC1-secondsim"  [ C:\Users\keepi\Downloads\cole4400lab5-PSpiceFiles\SCHEMATIC1\secondsim.sim ] 


 ****     CIRCUIT DESCRIPTION


******************************************************************************




** Creating circuit file "secondsim.cir" 
** WARNING: THIS AUTOMATICALLY GENERATED FILE MAY BE OVERWRITTEN BY SUBSEQUENT SIMULATIONS

*Libraries: 
* Profile Libraries :
* Local Libraries :
.LIB "../../../cole4400lab5-pspicefiles/cole4400lab5.lib" 
* From [PSPICE NETLIST] section of C:\Users\keepi\AppData\Roaming\SPB_Data\cdssetup\OrCAD_PSpice\17.2.0\PSpice.ini file:
.lib "nomd.lib" 

*Analysis directives: 
.DC LIN V_V3 1.5 4 0.5 
.OPTIONS ADVCONV
.PROBE64 V(alias(*)) I(alias(*)) W(alias(*)) D(alias(*)) NOISE(alias(*)) 
.INC "..\SCHEMATIC1.net" 



**** INCLUDING SCHEMATIC1.net ****
* source COLE4400LAB5
M_M1         N14397 N14592 0 0 Mbreakn  
+ L=10u  
+ W=170u  
+ AD=8500p  
+ AS=8500p  
+ PD=440u  
+ PS=440u  
+ NRD=0.1  
+ NRS=0.1   
R_R1         N14596 N14592  100k TC=0,0 
R_R2         N14393 N14557  10 TC=0,0 
V_PRINT1         N14393 N14397 0V
         
.PRINT        DC I(V_PRINT1) 
          
.PRINT         DC V([N14397],[0]) 
V_V1         N14596 0 0Vdc
V_V2         N14557 0 0Vdc
M_M2         N147392 N14893 0 0 Mbreakp  
+ L=10u  
+ W=360u  
+ AD=18000p  
+ AS=18000p  
+ PD=820u  
+ PS=820u  
+ NRD=0.54  
+ NRS=0.54   
V_V3         0 N14886 0Vdc
V_V4         N14973 0 4
V_PRINT3         N148010 N14973 0V
         
.PRINT        DC I(V_PRINT3) 
R_R3         N14886 N14893  100k TC=0,0 
R_R4         N148010 N147392  10 TC=0,0 

**** RESUMING secondsim.cir ****
.END

INFO(ORPSIM-15454): Model Mbreakn: Using BSIM VERSION 3.1 or lower

INFO(ORPSIM-15454): Model Mbreakp: Using BSIM VERSION 3.1 or lower

**** 07/05/22 21:54:04 ******* PSpice Lite (March 2016) ******* ID# 10813 ****

 ** Profile: "SCHEMATIC1-secondsim"  [ C:\Users\keepi\Downloads\cole4400lab5-PSpiceFiles\SCHEMATIC1\secondsim.sim ] 


 ****     MOSFET MODEL PARAMETERS


******************************************************************************




               Mbreakn         Mbreakp         
               NMOS            PMOS            
       LEVEL    7               7            
           L  100.000000E-06  100.000000E-06 
           W  100.000000E-06  100.000000E-06 
         VTO    1.4            -1.65         
          KP   51.797160E-06   41.437730E-06 
       GAMMA    0               0            
      LAMBDA    0               0            
         RSH  300               1.347000E+03 
          IS    1.000000E-15    1.000000E-15 
          JS   32.300000E-09   35.100000E-09 
        JSSW   32.300000E-09   35.100000E-09 
          PB     .95             .94         
        PBSW     .95             .94         
          CJ   68.000000E-09   52.800000E-09 
        CJSW  126.000000E-12  119.000000E-12 
        MJSW     .5              .5          
        CGSO  340.000000E-12  450.000000E-12 
        CGDO  340.000000E-12  450.000000E-12 
        CGBO  575.000000E-12  575.000000E-12 
        NSUB    5.330000E+15  800.000000E+12 
         TOX   40.000000E-09   50.000000E-09 
          XJ   29.000000E+06  226.000000E-09 
       UCRIT   10.000000E+03   10.000000E+03 
      DIOMOD    2               2            
        LETA    0               0            
        WETA    0               0            
          U0    1.300000E+03  400            
       XPART    0               0            
        VTH0    1.4            -1.65         
          UA    2.250000E-09    2.250000E-09 
          UB  587.000000E-21  587.000000E-21 
          UC  -46.500000E-12  -46.500000E-12 
        VSAT   80.000000E+03   80.000000E+03 
        RDSW    0               0            
        VOFF    -.08            -.08         
        PCLM    5               5            
          A0    1               1            
          A1    0               0            
          A2    1               1            
       NPEAK    4.000000E+15    1.000000E+15 
          XT   86.600000E-09   86.600000E-09 
         LDD    0               0            
        LITL    1.865476      184.119500E-09 
         UA1    4.310000E-09    4.310000E-09 
         UB1   -7.610000E-18   -7.610000E-18 
         UC1  -56.000000E-12  -56.000000E-12 
        DSUB     .56             .56         
       NGATE  500.000000E+18  500.000000E+18 
      MOBMOD    1               1            
        PRWG    0               0            
        LINT  100.000000E-09    1.000000E-06 
        WINT  200.000000E-09    1.000000E-06 
         DLC  100.000000E-09    1.000000E-06 
         DWC  200.000000E-09    1.000000E-06 
          CF   52.713880E-12   48.302460E-12 
        NOIA  100.000000E+18    9.900000E+18 
        NOIB   50.000000E+03    2.400000E+03 
        NOIC   -1.400000E-12    1.400000E-12 
         VTM     .025864         .025864     
     VERSION    3.1             3.1          
       PBSWG     .95             .94         
       MJSWG     .5              .5          
       CJSWG  126.000000E-12  119.000000E-12 
       JTSCD   32.300000E-09   35.100000E-09 
      JSTSCD   32.300000E-09   35.100000E-09 


**** 07/05/22 21:54:04 ******* PSpice Lite (March 2016) ******* ID# 10813 ****

 ** Profile: "SCHEMATIC1-secondsim"  [ C:\Users\keepi\Downloads\cole4400lab5-PSpiceFiles\SCHEMATIC1\secondsim.sim ] 


 ****     DC TRANSFER CURVES               TEMPERATURE =   27.000 DEG C


******************************************************************************



  V_V3        I(V_PRINT1) 

   1.500E+00   4.091E-27
   2.000E+00   0.000E+00
   2.500E+00   0.000E+00
   3.000E+00   0.000E+00
   3.500E+00   0.000E+00
   4.000E+00   0.000E+00



**** 07/05/22 21:54:04 ******* PSpice Lite (March 2016) ******* ID# 10813 ****

 ** Profile: "SCHEMATIC1-secondsim"  [ C:\Users\keepi\Downloads\cole4400lab5-PSpiceFiles\SCHEMATIC1\secondsim.sim ] 


 ****     DC TRANSFER CURVES               TEMPERATURE =   27.000 DEG C


******************************************************************************



  V_V3        V(N14397,0) 

   1.500E+00  -4.091E-26
   2.000E+00   0.000E+00
   2.500E+00   0.000E+00
   3.000E+00   0.000E+00
   3.500E+00   0.000E+00
   4.000E+00   0.000E+00



**** 07/05/22 21:54:04 ******* PSpice Lite (March 2016) ******* ID# 10813 ****

 ** Profile: "SCHEMATIC1-secondsim"  [ C:\Users\keepi\Downloads\cole4400lab5-PSpiceFiles\SCHEMATIC1\secondsim.sim ] 


 ****     DC TRANSFER CURVES               TEMPERATURE =   27.000 DEG C


******************************************************************************



  V_V3        I(V_PRINT3) 

   1.500E+00  -4.761E-03
   2.000E+00  -4.763E-03
   2.500E+00  -4.763E-03
   3.000E+00  -4.764E-03
   3.500E+00  -4.764E-03
   4.000E+00  -4.764E-03




          JOB CONCLUDED

**** 07/05/22 21:54:04 ******* PSpice Lite (March 2016) ******* ID# 10813 ****

 ** Profile: "SCHEMATIC1-secondsim"  [ C:\Users\keepi\Downloads\cole4400lab5-PSpiceFiles\SCHEMATIC1\secondsim.sim ] 


 ****     JOB STATISTICS SUMMARY


******************************************************************************



  Total job time (using Solver 1)   =         .64
