
**** 07/05/22 21:31:24 ******* PSpice Lite (March 2016) ******* ID# 10813 ****

 ** Profile: "SCHEMATIC1-firstsim"  [ C:\Users\keepi\Downloads\cole4400lab5-PSpiceFiles\SCHEMATIC1\firstsim.sim ] 


 ****     CIRCUIT DESCRIPTION


******************************************************************************




** Creating circuit file "firstsim.cir" 
** WARNING: THIS AUTOMATICALLY GENERATED FILE MAY BE OVERWRITTEN BY SUBSEQUENT SIMULATIONS

*Libraries: 
* Profile Libraries :
* Local Libraries :
.LIB "../../../cole4400lab5-pspicefiles/cole4400lab5.lib" 
* From [PSPICE NETLIST] section of C:\Users\keepi\AppData\Roaming\SPB_Data\cdssetup\OrCAD_PSpice\17.2.0\PSpice.ini file:
.lib "nomd.lib" 

*Analysis directives: 
.DC LIN V_V1 0 15 1 
+ LIN V_V2 0 15 1 
.OPTIONS ADVCONV
.PROBE64 V(alias(*)) I(alias(*)) W(alias(*)) D(alias(*)) NOISE(alias(*)) 
.INC "..\SCHEMATIC1.net" 



**** INCLUDING SCHEMATIC1.net ****
* source COLE4400LAB5
M_M1         N14397 N14592 0 0 Mbreakn  
+ L=10u  
+ W=170u  
+ AD=8500p  
+ AS=8500p  
+ PD=440u  
+ PS=440u  
+ NRD=0.1  
+ NRS=0.1   
R_R1         N14596 N14592  100k TC=0,0 
R_R2         N14393 N14557  10 TC=0,0 
V_PRINT1         N14393 N14397 0V
         
.PRINT        DC I(V_PRINT1) 
          
.PRINT         DC V([N14397],[0]) 
V_V1         N14596 0 0Vdc
V_V2         N14557 0 0Vdc

**** RESUMING firstsim.cir ****
.END

INFO(ORPSIM-15454): Model Mbreakn: Using BSIM VERSION 3.1 or lower

**** 07/05/22 21:31:24 ******* PSpice Lite (March 2016) ******* ID# 10813 ****

 ** Profile: "SCHEMATIC1-firstsim"  [ C:\Users\keepi\Downloads\cole4400lab5-PSpiceFiles\SCHEMATIC1\firstsim.sim ] 


 ****     MOSFET MODEL PARAMETERS


******************************************************************************




               Mbreakn         
               NMOS            
       LEVEL    7            
           L  100.000000E-06 
           W  100.000000E-06 
         VTO    1.4          
          KP   51.797160E-06 
       GAMMA    0            
      LAMBDA    0            
         RSH  300            
          IS    1.000000E-15 
          JS   32.300000E-09 
        JSSW   32.300000E-09 
          PB     .95         
        PBSW     .95         
          CJ   68.000000E-09 
        CJSW  126.000000E-12 
        MJSW     .5          
        CGSO  340.000000E-12 
        CGDO  340.000000E-12 
        CGBO  575.000000E-12 
        NSUB    5.330000E+15 
         TOX   40.000000E-09 
          XJ   29.000000E+06 
       UCRIT   10.000000E+03 
      DIOMOD    2            
        LETA    0            
        WETA    0            
          U0    1.300000E+03 
       XPART    0            
        VTH0    1.4          
          UA    2.250000E-09 
          UB  587.000000E-21 
          UC  -46.500000E-12 
        VSAT   80.000000E+03 
        RDSW    0            
        VOFF    -.08         
        PCLM    5            
          A0    1            
          A1    0            
          A2    1            
       NPEAK    4.000000E+15 
          XT   86.600000E-09 
         LDD    0            
        LITL    1.865476     
         UA1    4.310000E-09 
         UB1   -7.610000E-18 
         UC1  -56.000000E-12 
        DSUB     .56         
       NGATE  500.000000E+18 
      MOBMOD    1            
        PRWG    0            
        LINT  100.000000E-09 
        WINT  200.000000E-09 
         DLC  100.000000E-09 
         DWC  200.000000E-09 
          CF   52.713880E-12 
        NOIA  100.000000E+18 
        NOIB   50.000000E+03 
        NOIC   -1.400000E-12 
         VTM     .025864     
     VERSION    3.1          
       PBSWG     .95         
       MJSWG     .5          
       CJSWG  126.000000E-12 
       JTSCD   32.300000E-09 
      JSTSCD   32.300000E-09 


**** 07/05/22 21:31:24 ******* PSpice Lite (March 2016) ******* ID# 10813 ****

 ** Profile: "SCHEMATIC1-firstsim"  [ C:\Users\keepi\Downloads\cole4400lab5-PSpiceFiles\SCHEMATIC1\firstsim.sim ] 


 ****     DC TRANSFER CURVES               TEMPERATURE =   27.000 DEG C


******************************************************************************



  V_V1        I(V_PRINT1) 

   0.000E+00   4.091E-27
   1.000E+00   0.000E+00
   2.000E+00   0.000E+00
   3.000E+00   0.000E+00
   4.000E+00  -1.339E-18
   5.000E+00  -1.661E-18
   6.000E+00  -1.920E-18
   7.000E+00   0.000E+00
   8.000E+00   0.000E+00
   9.000E+00   0.000E+00
   1.000E+01   0.000E+00
   1.100E+01   0.000E+00
   1.200E+01   0.000E+00
   1.300E+01  -5.775E-18
   1.400E+01   0.000E+00
   1.500E+01   0.000E+00
   0.000E+00   1.521E-11
   1.000E+00   2.606E-11
   2.000E+00   2.864E-04
   3.000E+00   1.429E-03
   4.000E+00   2.424E-03
   5.000E+00   3.217E-03
   6.000E+00   3.860E-03
   7.000E+00   4.390E-03
   8.000E+00   4.833E-03
   9.000E+00   5.208E-03
   1.000E+01   5.529E-03
   1.100E+01   5.806E-03
   1.200E+01   6.047E-03
   1.300E+01   6.258E-03
   1.400E+01   6.444E-03
   1.500E+01   6.610E-03
   0.000E+00   1.621E-11
   1.000E+00   2.778E-11
   2.000E+00   3.045E-04
   3.000E+00   1.723E-03
   4.000E+00   3.687E-03
   5.000E+00   5.396E-03
   6.000E+00   6.793E-03
   7.000E+00   7.949E-03
   8.000E+00   8.917E-03
   9.000E+00   9.738E-03
   1.000E+01   1.044E-02
   1.100E+01   1.105E-02
   1.200E+01   1.157E-02
   1.300E+01   1.203E-02
   1.400E+01   1.244E-02
   1.500E+01   1.280E-02
   0.000E+00   1.721E-11
   1.000E+00   2.951E-11
   2.000E+00   3.223E-04
   3.000E+00   1.817E-03
   4.000E+00   4.008E-03
   5.000E+00   6.528E-03
   6.000E+00   8.777E-03
   7.000E+00   1.065E-02
   8.000E+00   1.223E-02
   9.000E+00   1.356E-02
   1.000E+01   1.471E-02
   1.100E+01   1.570E-02
   1.200E+01   1.656E-02
   1.300E+01   1.731E-02
   1.400E+01   1.797E-02
   1.500E+01   1.856E-02
   0.000E+00   1.821E-11
   1.000E+00   3.123E-11
   2.000E+00   3.401E-04
   3.000E+00   1.910E-03
   4.000E+00   4.201E-03
   5.000E+00   6.901E-03
   6.000E+00   9.810E-03
   7.000E+00   1.248E-02
   8.000E+00   1.474E-02
   9.000E+00   1.666E-02
   1.000E+01   1.831E-02
   1.100E+01   1.974E-02
   1.200E+01   2.098E-02
   1.300E+01   2.207E-02
   1.400E+01   2.302E-02
   1.500E+01   2.387E-02
   0.000E+00   1.921E-11
   1.000E+00   3.295E-11
   2.000E+00   3.578E-04
   3.000E+00   2.002E-03
   4.000E+00   4.393E-03
   5.000E+00   7.201E-03
   6.000E+00   1.026E-02
   7.000E+00   1.344E-02
   8.000E+00   1.644E-02
   9.000E+00   1.901E-02
   1.000E+01   2.123E-02
   1.100E+01   2.315E-02
   1.200E+01   2.482E-02
   1.300E+01   2.629E-02
   1.400E+01   2.758E-02
   1.500E+01   2.872E-02
   0.000E+00   2.021E-11
   1.000E+00   3.467E-11
   2.000E+00   3.754E-04
   3.000E+00   2.093E-03
   4.000E+00   4.582E-03
   5.000E+00   7.499E-03
   6.000E+00   1.066E-02
   7.000E+00   1.397E-02
   8.000E+00   1.736E-02
   9.000E+00   2.061E-02
   1.000E+01   2.345E-02
   1.100E+01   2.591E-02
   1.200E+01   2.806E-02
   1.300E+01   2.995E-02
   1.400E+01   3.162E-02
   1.500E+01   3.309E-02
   0.000E+00   2.121E-11
   1.000E+00   3.640E-11
   2.000E+00   3.929E-04
   3.000E+00   2.184E-03
   4.000E+00   4.770E-03
   5.000E+00   7.793E-03
   6.000E+00   1.107E-02
   7.000E+00   1.449E-02
   8.000E+00   1.799E-02
   9.000E+00   2.152E-02
   1.000E+01   2.496E-02
   1.100E+01   2.802E-02
   1.200E+01   3.070E-02
   1.300E+01   3.305E-02
   1.400E+01   3.513E-02
   1.500E+01   3.697E-02
   0.000E+00   2.221E-11
   1.000E+00   3.812E-11
   2.000E+00   4.104E-04
   3.000E+00   2.274E-03
   4.000E+00   4.956E-03
   5.000E+00   8.085E-03
   6.000E+00   1.147E-02
   7.000E+00   1.500E-02
   8.000E+00   1.860E-02
   9.000E+00   2.224E-02
   1.000E+01   2.589E-02
   1.100E+01   2.947E-02
   1.200E+01   3.271E-02
   1.300E+01   3.557E-02
   1.400E+01   3.810E-02
   1.500E+01   4.034E-02
   0.000E+00   2.321E-11
   1.000E+00   3.984E-11
   2.000E+00   4.278E-04
   3.000E+00   2.363E-03
   4.000E+00   5.141E-03
   5.000E+00   8.374E-03
   6.000E+00   1.186E-02
   7.000E+00   1.550E-02
   8.000E+00   1.921E-02
   9.000E+00   2.295E-02
   1.000E+01   2.670E-02
   1.100E+01   3.043E-02
   1.200E+01   3.411E-02
   1.300E+01   3.750E-02
   1.400E+01   4.052E-02
   1.500E+01   4.320E-02
   0.000E+00   2.421E-11
   1.000E+00   4.157E-11
   2.000E+00   4.451E-04
   3.000E+00   2.452E-03
   4.000E+00   5.324E-03
   5.000E+00   8.660E-03
   6.000E+00   1.226E-02
   7.000E+00   1.600E-02
   8.000E+00   1.981E-02
   9.000E+00   2.365E-02
   1.000E+01   2.749E-02
   1.100E+01   3.132E-02
   1.200E+01   3.512E-02
   1.300E+01   3.886E-02
   1.400E+01   4.238E-02
   1.500E+01   4.554E-02
   0.000E+00   2.521E-11
   1.000E+00   4.329E-11
   2.000E+00   4.624E-04
   3.000E+00   2.540E-03
   4.000E+00   5.505E-03
   5.000E+00   8.944E-03
   6.000E+00   1.265E-02
   7.000E+00   1.649E-02
   8.000E+00   2.041E-02
   9.000E+00   2.435E-02
   1.000E+01   2.829E-02
   1.100E+01   3.220E-02
   1.200E+01   3.609E-02
   1.300E+01   3.993E-02
   1.400E+01   4.373E-02
   1.500E+01   4.734E-02
   0.000E+00   2.621E-11
   1.000E+00   4.501E-11
   2.000E+00   4.796E-04
   3.000E+00   2.627E-03
   4.000E+00   5.685E-03
   5.000E+00   9.225E-03
   6.000E+00   1.303E-02
   7.000E+00   1.698E-02
   8.000E+00   2.100E-02
   9.000E+00   2.504E-02
   1.000E+01   2.907E-02
   1.100E+01   3.308E-02
   1.200E+01   3.705E-02
   1.300E+01   4.098E-02
   1.400E+01   4.486E-02
   1.500E+01   4.869E-02
   0.000E+00   2.721E-11
   1.000E+00   4.673E-11
   2.000E+00   4.967E-04
   3.000E+00   2.714E-03
   4.000E+00   5.863E-03
   5.000E+00   9.504E-03
   6.000E+00   1.341E-02
   7.000E+00   1.747E-02
   8.000E+00   2.158E-02
   9.000E+00   2.572E-02
   1.000E+01   2.985E-02
   1.100E+01   3.395E-02
   1.200E+01   3.801E-02
   1.300E+01   4.202E-02
   1.400E+01   4.598E-02
   1.500E+01   4.988E-02
   0.000E+00   2.821E-11
   1.000E+00   4.846E-11
   2.000E+00   5.137E-04
   3.000E+00   2.800E-03
   4.000E+00   6.040E-03
   5.000E+00   9.780E-03
   6.000E+00   1.379E-02
   7.000E+00   1.795E-02
   8.000E+00   2.217E-02
   9.000E+00   2.640E-02
   1.000E+01   3.062E-02
   1.100E+01   3.481E-02
   1.200E+01   3.896E-02
   1.300E+01   4.305E-02
   1.400E+01   4.708E-02
   1.500E+01   5.106E-02
   0.000E+00   2.921E-11
   1.000E+00   5.018E-11
   2.000E+00   5.307E-04
   3.000E+00   2.885E-03
   4.000E+00   6.215E-03
   5.000E+00   1.005E-02
   6.000E+00   1.417E-02
   7.000E+00   1.842E-02
   8.000E+00   2.274E-02
   9.000E+00   2.707E-02
   1.000E+01   3.139E-02
   1.100E+01   3.567E-02
   1.200E+01   3.990E-02
   1.300E+01   4.407E-02
   1.400E+01   4.818E-02
   1.500E+01   5.224E-02



**** 07/05/22 21:31:24 ******* PSpice Lite (March 2016) ******* ID# 10813 ****

 ** Profile: "SCHEMATIC1-firstsim"  [ C:\Users\keepi\Downloads\cole4400lab5-PSpiceFiles\SCHEMATIC1\firstsim.sim ] 


 ****     DC TRANSFER CURVES               TEMPERATURE =   27.000 DEG C


******************************************************************************



  V_V1        V(N14397,0) 

   0.000E+00  -4.091E-26
   1.000E+00   0.000E+00
   2.000E+00   0.000E+00
   3.000E+00   0.000E+00
   4.000E+00   1.339E-17
   5.000E+00   1.661E-17
   6.000E+00   1.920E-17
   7.000E+00   0.000E+00
   8.000E+00   0.000E+00
   9.000E+00   0.000E+00
   1.000E+01   0.000E+00
   1.100E+01   0.000E+00
   1.200E+01   0.000E+00
   1.300E+01   5.775E-17
   1.400E+01   0.000E+00
   1.500E+01   0.000E+00
   0.000E+00   1.000E+00
   1.000E+00   1.000E+00
   2.000E+00   9.971E-01
   3.000E+00   9.857E-01
   4.000E+00   9.758E-01
   5.000E+00   9.678E-01
   6.000E+00   9.614E-01
   7.000E+00   9.561E-01
   8.000E+00   9.517E-01
   9.000E+00   9.479E-01
   1.000E+01   9.447E-01
   1.100E+01   9.419E-01
   1.200E+01   9.395E-01
   1.300E+01   9.374E-01
   1.400E+01   9.356E-01
   1.500E+01   9.339E-01
   0.000E+00   2.000E+00
   1.000E+00   2.000E+00
   2.000E+00   1.997E+00
   3.000E+00   1.983E+00
   4.000E+00   1.963E+00
   5.000E+00   1.946E+00
   6.000E+00   1.932E+00
   7.000E+00   1.921E+00
   8.000E+00   1.911E+00
   9.000E+00   1.903E+00
   1.000E+01   1.896E+00
   1.100E+01   1.890E+00
   1.200E+01   1.884E+00
   1.300E+01   1.880E+00
   1.400E+01   1.876E+00
   1.500E+01   1.872E+00
   0.000E+00   3.000E+00
   1.000E+00   3.000E+00
   2.000E+00   2.997E+00
   3.000E+00   2.982E+00
   4.000E+00   2.960E+00
   5.000E+00   2.935E+00
   6.000E+00   2.912E+00
   7.000E+00   2.894E+00
   8.000E+00   2.878E+00
   9.000E+00   2.864E+00
   1.000E+01   2.853E+00
   1.100E+01   2.843E+00
   1.200E+01   2.834E+00
   1.300E+01   2.827E+00
   1.400E+01   2.820E+00
   1.500E+01   2.814E+00
   0.000E+00   4.000E+00
   1.000E+00   4.000E+00
   2.000E+00   3.997E+00
   3.000E+00   3.981E+00
   4.000E+00   3.958E+00
   5.000E+00   3.931E+00
   6.000E+00   3.902E+00
   7.000E+00   3.875E+00
   8.000E+00   3.853E+00
   9.000E+00   3.833E+00
   1.000E+01   3.817E+00
   1.100E+01   3.803E+00
   1.200E+01   3.790E+00
   1.300E+01   3.779E+00
   1.400E+01   3.770E+00
   1.500E+01   3.761E+00
   0.000E+00   5.000E+00
   1.000E+00   5.000E+00
   2.000E+00   4.996E+00
   3.000E+00   4.980E+00
   4.000E+00   4.956E+00
   5.000E+00   4.928E+00
   6.000E+00   4.897E+00
   7.000E+00   4.866E+00
   8.000E+00   4.836E+00
   9.000E+00   4.810E+00
   1.000E+01   4.788E+00
   1.100E+01   4.769E+00
   1.200E+01   4.752E+00
   1.300E+01   4.737E+00
   1.400E+01   4.724E+00
   1.500E+01   4.713E+00
   0.000E+00   6.000E+00
   1.000E+00   6.000E+00
   2.000E+00   5.996E+00
   3.000E+00   5.979E+00
   4.000E+00   5.954E+00
   5.000E+00   5.925E+00
   6.000E+00   5.893E+00
   7.000E+00   5.860E+00
   8.000E+00   5.826E+00
   9.000E+00   5.794E+00
   1.000E+01   5.766E+00
   1.100E+01   5.741E+00
   1.200E+01   5.719E+00
   1.300E+01   5.700E+00
   1.400E+01   5.684E+00
   1.500E+01   5.669E+00
   0.000E+00   7.000E+00
   1.000E+00   7.000E+00
   2.000E+00   6.996E+00
   3.000E+00   6.978E+00
   4.000E+00   6.952E+00
   5.000E+00   6.922E+00
   6.000E+00   6.889E+00
   7.000E+00   6.855E+00
   8.000E+00   6.820E+00
   9.000E+00   6.785E+00
   1.000E+01   6.750E+00
   1.100E+01   6.720E+00
   1.200E+01   6.693E+00
   1.300E+01   6.670E+00
   1.400E+01   6.649E+00
   1.500E+01   6.630E+00
   0.000E+00   8.000E+00
   1.000E+00   8.000E+00
   2.000E+00   7.996E+00
   3.000E+00   7.977E+00
   4.000E+00   7.950E+00
   5.000E+00   7.919E+00
   6.000E+00   7.885E+00
   7.000E+00   7.850E+00
   8.000E+00   7.814E+00
   9.000E+00   7.778E+00
   1.000E+01   7.741E+00
   1.100E+01   7.705E+00
   1.200E+01   7.673E+00
   1.300E+01   7.644E+00
   1.400E+01   7.619E+00
   1.500E+01   7.597E+00
   0.000E+00   9.000E+00
   1.000E+00   9.000E+00
   2.000E+00   8.996E+00
   3.000E+00   8.976E+00
   4.000E+00   8.949E+00
   5.000E+00   8.916E+00
   6.000E+00   8.881E+00
   7.000E+00   8.845E+00
   8.000E+00   8.808E+00
   9.000E+00   8.771E+00
   1.000E+01   8.733E+00
   1.100E+01   8.696E+00
   1.200E+01   8.659E+00
   1.300E+01   8.625E+00
   1.400E+01   8.595E+00
   1.500E+01   8.568E+00
   0.000E+00   1.000E+01
   1.000E+00   1.000E+01
   2.000E+00   9.996E+00
   3.000E+00   9.975E+00
   4.000E+00   9.947E+00
   5.000E+00   9.913E+00
   6.000E+00   9.877E+00
   7.000E+00   9.840E+00
   8.000E+00   9.802E+00
   9.000E+00   9.763E+00
   1.000E+01   9.725E+00
   1.100E+01   9.687E+00
   1.200E+01   9.649E+00
   1.300E+01   9.611E+00
   1.400E+01   9.576E+00
   1.500E+01   9.545E+00
   0.000E+00   1.100E+01
   1.000E+00   1.100E+01
   2.000E+00   1.100E+01
   3.000E+00   1.097E+01
   4.000E+00   1.095E+01
   5.000E+00   1.091E+01
   6.000E+00   1.087E+01
   7.000E+00   1.084E+01
   8.000E+00   1.080E+01
   9.000E+00   1.076E+01
   1.000E+01   1.072E+01
   1.100E+01   1.068E+01
   1.200E+01   1.064E+01
   1.300E+01   1.060E+01
   1.400E+01   1.056E+01
   1.500E+01   1.053E+01
   0.000E+00   1.200E+01
   1.000E+00   1.200E+01
   2.000E+00   1.200E+01
   3.000E+00   1.197E+01
   4.000E+00   1.194E+01
   5.000E+00   1.191E+01
   6.000E+00   1.187E+01
   7.000E+00   1.183E+01
   8.000E+00   1.179E+01
   9.000E+00   1.175E+01
   1.000E+01   1.171E+01
   1.100E+01   1.167E+01
   1.200E+01   1.163E+01
   1.300E+01   1.159E+01
   1.400E+01   1.155E+01
   1.500E+01   1.151E+01
   0.000E+00   1.300E+01
   1.000E+00   1.300E+01
   2.000E+00   1.300E+01
   3.000E+00   1.297E+01
   4.000E+00   1.294E+01
   5.000E+00   1.291E+01
   6.000E+00   1.287E+01
   7.000E+00   1.283E+01
   8.000E+00   1.278E+01
   9.000E+00   1.274E+01
   1.000E+01   1.270E+01
   1.100E+01   1.266E+01
   1.200E+01   1.262E+01
   1.300E+01   1.258E+01
   1.400E+01   1.254E+01
   1.500E+01   1.250E+01
   0.000E+00   1.400E+01
   1.000E+00   1.400E+01
   2.000E+00   1.399E+01
   3.000E+00   1.397E+01
   4.000E+00   1.394E+01
   5.000E+00   1.390E+01
   6.000E+00   1.386E+01
   7.000E+00   1.382E+01
   8.000E+00   1.378E+01
   9.000E+00   1.374E+01
   1.000E+01   1.369E+01
   1.100E+01   1.365E+01
   1.200E+01   1.361E+01
   1.300E+01   1.357E+01
   1.400E+01   1.353E+01
   1.500E+01   1.349E+01
   0.000E+00   1.500E+01
   1.000E+00   1.500E+01
   2.000E+00   1.499E+01
   3.000E+00   1.497E+01
   4.000E+00   1.494E+01
   5.000E+00   1.490E+01
   6.000E+00   1.486E+01
   7.000E+00   1.482E+01
   8.000E+00   1.477E+01
   9.000E+00   1.473E+01
   1.000E+01   1.469E+01
   1.100E+01   1.464E+01
   1.200E+01   1.460E+01
   1.300E+01   1.456E+01
   1.400E+01   1.452E+01
   1.500E+01   1.448E+01




          JOB CONCLUDED

**** 07/05/22 21:31:24 ******* PSpice Lite (March 2016) ******* ID# 10813 ****

 ** Profile: "SCHEMATIC1-firstsim"  [ C:\Users\keepi\Downloads\cole4400lab5-PSpiceFiles\SCHEMATIC1\firstsim.sim ] 


 ****     JOB STATISTICS SUMMARY


******************************************************************************



  Total job time (using Solver 1)   =         .91
