
**** 05/21/22 21:02:42 ****** PSpice Lite (October 2012) ****** ID# 10813 ****

 ** Profile: "SCHEMATIC2-newrootsim"  [ H:\4300Lab1Try2-PSpiceFiles\SCHEMATIC2\newrootsim.sim ] 


 ****     CIRCUIT DESCRIPTION


******************************************************************************




** Creating circuit file "newrootsim.cir" 
** WARNING: THIS AUTOMATICALLY GENERATED FILE MAY BE OVERWRITTEN BY SUBSEQUENT SIMULATIONS

*Libraries: 
* Profile Libraries :
* Local Libraries :
* From [PSPICE NETLIST] section of C:\SPB_Data\cdssetup\OrCAD_PSpice/16.6.0/PSpice.ini file:
.lib "nomd.lib" 

*Analysis directives: 
.TRAN  0 15ms 0 0.000001 
.OPTIONS ADVCONV
.PROBE64 V(alias(*)) I(alias(*)) W(alias(*)) D(alias(*)) NOISE(alias(*)) 
.INC "..\SCHEMATIC2.net" 



**** INCLUDING SCHEMATIC2.net ****
* source 4300LAB1TRY2
D_D1         NODE A 0 D1N4148 
----------------------$
ERROR(ORPSIM-16147): Invalid parameter
R_R4         N00596 NODE A  10k TC=0,0 
R_R3         NODE A N00552  1k TC=0,0 
C_C1         N00533 N00552  10u  TC=0,0 
V_V2         N00596 0 0Vdc
V_V1         N00533 0  AC 50m
+SIN 0 50m 1k 0 0 0

**** RESUMING newrootsim.cir ****
.END

WARNING(ORPSIM-15220): Error in opening Alias File : H:\4300Lab1Try2-PSpiceFiles\SCHEMATIC2\SCHEMATIC2.als
